Version 4.1
SHEET 1 1636 776
WIRE -320 -336 -480 -336
WIRE -112 -336 -112 -496
WIRE -112 -336 -240 -336
WIRE 1392 -320 1120 -320
WIRE 1616 -320 1472 -320
WIRE 1616 -240 1616 -320
WIRE -896 -192 -896 -304
WIRE 912 -144 752 -144
WIRE 1424 -144 912 -144
WIRE -896 0 -896 -112
WIRE -592 0 -592 -96
WIRE 1120 0 1120 -320
WIRE 912 48 912 -144
WIRE 1088 48 912 48
WIRE 1104 48 1088 48
WIRE 752 64 752 -144
WIRE -848 80 -896 80
WIRE -800 80 -848 80
WIRE -480 80 -480 -336
WIRE 752 80 752 64
WIRE 1424 80 1424 -144
WIRE 1424 80 1232 80
WIRE 1488 80 1424 80
WIRE -800 96 -800 80
WIRE -592 96 -592 64
WIRE -592 96 -720 96
WIRE -528 96 -592 96
WIRE -848 112 -848 80
WIRE 1088 112 1072 112
WIRE -528 128 -528 96
WIRE -512 128 -528 128
WIRE 1008 144 880 144
WIRE 1072 144 1072 112
WIRE 1072 144 1008 144
WIRE -176 160 -368 160
WIRE 752 160 752 128
WIRE 752 160 704 160
WIRE 800 160 800 144
WIRE 800 160 752 160
WIRE -848 176 -848 160
WIRE 1008 176 1008 144
WIRE -512 192 -688 192
WIRE -496 192 -512 192
WIRE 1008 336 1008 240
WIRE -176 352 -176 160
WIRE 704 352 704 240
WIRE 704 352 -176 352
WIRE -848 384 -848 176
WIRE -688 384 -688 192
WIRE -688 384 -848 384
WIRE -176 384 -176 352
WIRE -176 384 -688 384
WIRE -480 560 -480 240
WIRE -208 560 -480 560
WIRE 16 560 16 480
WIRE 16 560 -128 560
WIRE 1120 576 1120 160
WIRE 1264 576 1120 576
WIRE 1488 576 1344 576
WIRE 1488 736 1488 576
FLAG -592 -96 0
FLAG -896 -304 0
FLAG -112 -496 0
FLAG 16 480 0
FLAG 1008 336 0
FLAG 1488 736 0
FLAG 1616 -240 0
FLAG 1488 80 Out
IOPIN 1488 80 Out
SYMBOL res -912 96 M180
WINDOW 0 36 76 Left 2
WINDOW 3 36 40 Left 2
SYMATTR InstName R1
SYMATTR Value 1.72k
SYMBOL res -704 112 M270
WINDOW 0 32 56 VTop 2
WINDOW 3 0 56 VBottom 2
SYMATTR InstName R2
SYMATTR Value 6.14k
SYMBOL cap -864 176 M180
WINDOW 0 24 56 Left 2
WINDOW 3 24 8 Left 2
SYMATTR InstName C1
SYMATTR Value 62n
SYMBOL cap -608 64 M180
WINDOW 0 24 56 Left 2
WINDOW 3 24 8 Left 2
SYMATTR InstName C2
SYMATTR Value 6.2n
SYMBOL OpAmps\\LT6236 -480 160 M180
SYMATTR InstName U1
SYMBOL voltage -896 -96 M180
WINDOW 123 24 124 Left 2
WINDOW 39 0 0 Left 0
SYMATTR InstName V1
SYMATTR Value SINE(0 1 60)
SYMATTR Value2 AC 1 0
SYMBOL voltage -224 560 R270
WINDOW 0 -32 56 VBottom 2
WINDOW 3 32 56 VTop 2
WINDOW 123 0 0 Left 0
WINDOW 39 0 0 Left 0
SYMATTR InstName V2
SYMATTR Value 5
SYMBOL voltage -336 -336 R270
WINDOW 0 32 56 VTop 2
WINDOW 3 -32 56 VBottom 2
WINDOW 123 0 0 Left 0
WINDOW 39 0 0 Left 0
SYMATTR InstName V3
SYMATTR Value -5
SYMBOL res 688 144 R0
SYMATTR InstName R4
SYMATTR Value 832
SYMBOL res 896 128 R90
WINDOW 0 0 56 VBottom 2
WINDOW 3 32 56 VTop 2
SYMATTR InstName R5
SYMATTR Value 1.67k
SYMBOL cap 736 64 R0
SYMATTR InstName C3
SYMATTR Value 62n
SYMBOL cap 992 176 R0
SYMATTR InstName C4
SYMATTR Value 47n
SYMBOL OpAmps\\LT6236 1120 80 R0
SYMATTR InstName U2
SYMBOL voltage 1376 -320 M90
WINDOW 0 -32 56 VBottom 2
WINDOW 3 32 56 VTop 2
WINDOW 123 0 0 Left 0
WINDOW 39 0 0 Left 0
SYMATTR InstName V5
SYMATTR Value 5
SYMBOL voltage 1248 576 M90
WINDOW 0 32 56 VTop 2
WINDOW 3 -32 56 VBottom 2
WINDOW 123 0 0 Left 0
WINDOW 39 0 0 Left 0
SYMATTR InstName V6
SYMATTR Value -5
TEXT -784 760 Left 2 !.ac dec 100 10 10Meg
