Version 4.1
SHEET 1 1636 756
WIRE -64 -320 -336 -320
WIRE 160 -320 16 -320
WIRE 1392 -320 1120 -320
WIRE 1616 -320 1472 -320
WIRE 160 -240 160 -320
WIRE 1616 -240 1616 -320
WIRE -544 -144 -704 -144
WIRE -32 -144 -544 -144
WIRE 912 -144 752 -144
WIRE 1424 -144 912 -144
WIRE -336 0 -336 -320
WIRE 1120 0 1120 -320
WIRE -544 48 -544 -144
WIRE -368 48 -544 48
WIRE -352 48 -368 48
WIRE 912 48 912 -144
WIRE 1088 48 912 48
WIRE 1104 48 1088 48
WIRE -704 64 -704 -144
WIRE 752 64 752 -144
WIRE -704 80 -704 64
WIRE 752 80 752 64
WIRE -368 112 -384 112
WIRE 1088 112 1072 112
WIRE -448 144 -576 144
WIRE -384 144 -384 112
WIRE -384 144 -448 144
WIRE 1008 144 880 144
WIRE 1072 144 1072 112
WIRE 1072 144 1008 144
WIRE -704 160 -704 128
WIRE -704 160 -752 160
WIRE -656 160 -656 144
WIRE -656 160 -704 160
WIRE 752 160 752 128
WIRE 752 160 704 160
WIRE 800 160 800 144
WIRE 800 160 752 160
WIRE -448 176 -448 144
WIRE 1008 176 1008 144
WIRE -448 336 -448 240
WIRE 1008 336 1008 240
WIRE -752 352 -752 240
WIRE -32 352 -32 -144
WIRE 704 352 704 240
WIRE 704 352 -32 352
WIRE -288 368 -288 160
WIRE -32 368 -32 352
WIRE -32 368 -288 368
WIRE 1168 368 1168 160
WIRE 1424 368 1424 -144
WIRE 1424 368 1168 368
WIRE -752 544 -752 432
WIRE -336 576 -336 160
WIRE -160 576 -336 576
WIRE 32 576 -80 576
WIRE 1120 576 1120 160
WIRE 1296 576 1120 576
WIRE 1488 576 1376 576
WIRE 32 736 32 576
WIRE 1488 736 1488 576
FLAG -448 336 0
FLAG -752 544 0
FLAG 32 736 0
FLAG 160 -240 0
FLAG 1008 336 0
FLAG 1488 736 0
FLAG 1616 -240 0
SYMBOL res -768 144 R0
SYMATTR InstName R1
SYMBOL res -560 128 R90
WINDOW 0 0 56 VBottom 2
WINDOW 3 32 56 VTop 2
SYMATTR InstName R2
SYMBOL res -560 128 R90
WINDOW 0 0 56 VBottom 2
WINDOW 3 32 56 VTop 2
SYMATTR InstName R3
SYMBOL cap -720 64 R0
SYMATTR InstName C1
SYMBOL cap -464 176 R0
SYMATTR InstName C2
SYMBOL OpAmps\\LT6236 -336 80 R0
SYMATTR InstName U1
SYMBOL voltage -752 336 R0
SYMATTR InstName V1
SYMBOL voltage -80 -320 M90
WINDOW 0 -32 56 VBottom 2
WINDOW 3 32 56 VTop 2
WINDOW 123 0 0 Left 0
WINDOW 39 0 0 Left 0
SYMATTR InstName V2
SYMATTR Value 5
SYMBOL voltage -64 576 M270
WINDOW 0 32 56 VTop 2
WINDOW 3 -32 56 VBottom 2
WINDOW 123 0 0 Left 0
WINDOW 39 0 0 Left 0
SYMATTR InstName V3
SYMATTR Value 5
SYMBOL res 688 144 R0
SYMATTR InstName R4
SYMBOL res 896 128 R90
WINDOW 0 0 56 VBottom 2
WINDOW 3 32 56 VTop 2
SYMATTR InstName R5
SYMBOL res 896 128 R90
WINDOW 0 0 56 VBottom 2
WINDOW 3 32 56 VTop 2
SYMATTR InstName R6
SYMBOL cap 736 64 R0
SYMATTR InstName C3
SYMBOL cap 992 176 R0
SYMATTR InstName C4
SYMBOL OpAmps\\LT6236 1120 80 R0
SYMATTR InstName U2
SYMBOL voltage 1376 -320 M90
WINDOW 0 -32 56 VBottom 2
WINDOW 3 32 56 VTop 2
WINDOW 123 0 0 Left 0
WINDOW 39 0 0 Left 0
SYMATTR InstName V5
SYMATTR Value 5
SYMBOL voltage 1392 576 M270
WINDOW 0 32 56 VTop 2
WINDOW 3 -32 56 VBottom 2
WINDOW 123 0 0 Left 0
WINDOW 39 0 0 Left 0
SYMATTR InstName V6
SYMATTR Value 5
