Version 4.1
SHEET 1 4112 860
WIRE 784 -176 352 -176
WIRE 512 -128 240 -128
WIRE 928 -48 448 -48
WIRE 320 48 320 -32
WIRE 352 48 352 -176
WIRE 352 48 320 48
WIRE 480 48 448 48
WIRE 320 112 320 48
WIRE 240 128 240 -128
WIRE 288 128 288 112
WIRE 288 128 240 128
WIRE 304 128 288 128
WIRE 480 144 480 48
WIRE 480 144 448 144
WIRE -160 160 -176 160
WIRE -128 160 -160 160
WIRE -16 160 -48 160
WIRE 16 160 -16 160
WIRE 144 160 96 160
WIRE 288 160 144 160
WIRE 304 160 288 160
WIRE 512 160 512 -128
WIRE 576 160 512 160
WIRE 608 160 576 160
WIRE 288 176 288 160
WIRE 144 192 144 160
WIRE 656 240 448 240
WIRE 368 249 368 240
WIRE 144 272 144 256
WIRE 352 272 352 224
WIRE 368 272 368 249
WIRE 368 272 352 272
WIRE 320 336 320 176
WIRE 784 336 784 -176
WIRE 784 336 448 336
WIRE 656 352 656 240
WIRE -16 400 -16 160
WIRE 176 400 -16 400
WIRE 512 400 512 160
WIRE 512 400 240 400
WIRE 320 448 320 368
WIRE 320 448 304 448
WIRE 368 448 368 272
WIRE 368 448 320 448
WIRE 928 448 928 -48
WIRE 928 448 368 448
FLAG 320 -32 V+
FLAG 320 336 V-
FLAG 576 160 OUT
FLAG -160 160 IN
FLAG 144 272 REF
FLAG 368 249 V+
FLAG 656 352 0
SYMBOL res 112 144 R90
WINDOW 0 0 56 VBottom 2
WINDOW 3 32 56 VTop 2
SYMATTR InstName R2
SYMATTR Value 383k
SYMBOL res -32 144 R90
WINDOW 0 0 56 VBottom 2
WINDOW 3 32 56 VTop 2
SYMATTR InstName R1
SYMATTR Value 107k
SYMBOL cap 128 192 R0
SYMATTR InstName C2
SYMATTR Value 100p
SYMBOL cap 240 384 R90
WINDOW 0 0 32 VBottom 2
WINDOW 3 32 32 VTop 2
SYMATTR InstName C1
SYMATTR Value 1n
SYMBOL Opamps\\LTC2067 320 144 R0
SYMATTR InstName U1
TEXT -176 504 Left 4 ;This subcircuit is not simulatable.  \nPlease open one of the \n"Filter Design*.asc" schematics to \nsimulate your Filter Wizard design.
